OPT_V9/Results/My_campus_w_initial_sub_3_active_25_03_11_44/powerflow_results_t8.txt
Pandapower Network Debug Info
==================================================

BUS:
       vm_pu  va_degree      p_mw        q_mvar
0   1.006037   0.232620 -0.003525 -1.372853e-03
1   1.009564   0.412952 -0.004434  0.000000e+00
2   1.010995   0.511760 -0.001939  4.342718e-04
3   1.007664   0.304954 -0.002458  1.635800e-07
4   1.003443   0.198528 -0.002324  4.296053e-04
5   1.004169   0.158183 -0.001991 -7.986094e-05
6   1.007128   0.260193 -0.003133 -3.743875e-04
7   1.001979   0.064875 -0.002667 -4.376968e-04
8   1.001036   0.042970 -0.003657 -8.730758e-04
9   0.999960   0.001314  0.004194  6.605081e-03
10  0.999953   0.001400  0.004859  5.397389e-03
11  0.999948   0.001475  0.005509  7.004959e-03
12  0.999950   0.001401  0.004145  9.761558e-04
13  0.999936   0.001484  0.007794  6.006488e-03
14  0.999929   0.001520  0.008514  7.932938e-03
15  0.999983   0.000975  0.000000  0.000000e+00
16  0.999983   0.000975  0.000000  0.000000e+00
17  0.999951   0.001445  0.000000  0.000000e+00
18  0.999951   0.001445  0.000000  0.000000e+00
19  1.000000   0.000000 -0.002329 -2.314895e-02
20  1.000000   0.000003  0.000000  0.000000e+00
21  1.000000   0.000000 -0.006750 -1.861717e-02
22  1.000000   0.000002  0.000000  0.000000e+00
--------------------------------------------------

LINE:
    p_from_mw   q_from_mvar   p_to_mw  q_to_mvar         pl_mw       ql_mvar  i_from_ka   i_to_ka      i_ka  vm_from_pu  va_from_degree  vm_to_pu  va_to_degree  loading_percent
0    0.002319  1.914896e-02 -0.002319  -0.019149  3.639249e-07  2.837582e-07   0.000742  0.000742  0.000742    1.000000        0.000003  0.999983      0.000975         0.322795
1    0.006740  1.461718e-02 -0.006739  -0.014617  6.969094e-07  5.433918e-07   0.000620  0.000620  0.000620    1.000000        0.000002  0.999951      0.001445         0.269366
2    0.014563  1.900788e-02 -0.014563  -0.019008  4.434055e-07  3.457306e-07   0.000922  0.000922  0.000922    0.999983        0.000975  0.999960      0.001314         0.400730
3    0.004145  9.761607e-04 -0.004145  -0.000976  6.271474e-09  4.889972e-09   0.000164  0.000164  0.000164    0.999951        0.001445  0.999950      0.001401         0.071265
4    0.016308  1.393967e-02 -0.016308  -0.013939  2.516969e-07  1.962522e-07   0.000826  0.000826  0.000826    0.999951        0.001445  0.999936      0.001484         0.359044
5   -0.012255 -8.591144e-04  0.012325   0.000914  7.058744e-05  5.503819e-05   0.017732  0.017732  0.017732    0.999983        0.000975  1.006037      0.232620         7.709426
6   -0.005095 -4.317726e-04  0.005115   0.000448  2.028319e-05  1.581514e-05   0.007380  0.007380  0.007380    0.999951        0.001445  1.004169      0.158183         3.208780
7   -0.002662 -4.338642e-04  0.002667   0.000438  4.915406e-06  3.832623e-06   0.003893  0.003893  0.003893    0.999951        0.001445  1.001979      0.064875         1.692716
8   -0.005967 -4.334101e-04  0.005973   0.000438  6.155246e-06  4.799347e-06   0.008636  0.008636  0.008636    0.999951        0.001445  1.001036      0.042970         3.754818
9   -0.010368 -1.240238e-02  0.010368   0.012402  9.037860e-08  7.046968e-08   0.000622  0.000622  0.000622    0.999953        0.001400  0.999960      0.001314         0.270537
10  -0.005509 -7.004959e-03  0.005510   0.007005  3.884765e-08  3.029015e-08   0.000343  0.000343  0.000343    0.999948        0.001475  0.999953      0.001400         0.149148
11  -0.008514 -7.932938e-03  0.008514   0.007933  6.624002e-08  5.164843e-08   0.000448  0.000448  0.000448    0.999929        0.001520  0.999936      0.001484         0.194759
12   0.006369 -4.369931e-04 -0.006346   0.000455  2.365889e-05  1.844723e-05   0.009128  0.009128  0.009128    1.009564        0.412952  1.006037      0.232620         3.968492
13   0.002458 -1.629874e-07 -0.002454   0.000003  3.973340e-06  3.098079e-06   0.003521  0.003521  0.003521    1.007664        0.304954  1.006037      0.232620         1.530889
14   0.001939 -4.342719e-04 -0.001935   0.000437  3.492926e-06  2.723492e-06   0.002836  0.002836  0.002836    1.010995        0.511760  1.009564      0.412952         1.233160
15  -0.002317  4.348663e-04  0.002324  -0.000430  6.747396e-06  5.261056e-06   0.003399  0.003399  0.003399    1.001036        0.042970  1.003443      0.198528         1.477809
16   0.003133  3.743883e-04 -0.003124  -0.000368  8.543428e-06  6.661452e-06   0.004521  0.004521  0.004521    1.007128        0.260193  1.004169      0.158183         1.965861
--------------------------------------------------

TRAFO:
    p_hv_mw  q_hv_mvar   p_lv_mw  q_lv_mvar    pl_mw  ql_mvar   i_hv_ka   i_lv_ka  vm_hv_pu  va_hv_degree  vm_lv_pu  va_lv_degree  loading_percent
0 -0.012245   0.000141  0.012255   0.000859  0.00001    0.001  0.000471  0.017732  0.999983      0.000975  0.999983      0.000975         0.122849
1 -0.013714  -0.000299  0.013724   0.001299  0.00001    0.001  0.000528  0.019898  0.999951      0.001445  0.999951      0.001445         0.137860
2  0.002329   0.023149 -0.002319  -0.019149  0.00001    0.004  0.000192  0.000742  1.000000      0.000000  1.000000      0.000003         0.058165
3  0.006750   0.018617 -0.006740  -0.014617  0.00001    0.004  0.000163  0.000620  1.000000      0.000000  1.000000      0.000002         0.049508
--------------------------------------------------
